Circuit: * C:\Users\tim-j\Mein_Leben\_Projekte\git\hsrm_ap_bsc\WS2021\ET\versuch 4\Draft5.asc

Direct Newton iteration for .op point succeeded.

Date: Fri Jan 29 19:13:03 2021
Total elapsed time: 0.032 seconds.

tnom = 27
temp = 27
method = trap
totiter = 7
traniter = 0
tranpoints = 0
accept = 0
rejected = 0
matrix size = 12
fillins = 0
solver = Normal
Matrix Compiler1:      34 opcodes
Matrix Compiler2: 886 bytes object code size
